/*--------------------------------*- C++ -*----------------------------------*\
  =========                 |
  \\      /  F ield         | OpenFOAM: The Open Source CFD Toolbox
   \\    /   O peration     | Website:  https://openfoam.org
    \\  /    A nd           | Version:  6
     \\/     M anipulation  |
\*---------------------------------------------------------------------------*/
FoamFile
{
    version     2.0;
    format      ascii;
    class       dictionary;
    location    "system";
    object      decomposeParDict;
}
// * * * * * * * * * * * * * * * * * * * * * * * * * * * * * * * * * * * * * //

//- Force AMI to be on single processor. Can cause imbalance with some
//  decomposers.
//singleProcessorFaceSets ((AMI -1));

numberOfSubdomains 8;

method          simple;

distributed     no;

roots           ( );

simpleCoeffs
{
    n               (2 4 1);
    delta           0.0001;
}

// ************************************************************************* //
