/*--------------------------------*- C++ -*----------------------------------*\
| =========                 |                                                 |
| \\      /  F ield         | OpenFOAM: The Open Source CFD Toolbox           |
|  \\    /   O peration     | Version:  dev                                   |
|   \\  /    A nd           | Web:      www.OpenFOAM.org                      |
|    \\/     M anipulation  |                                                 |
\*---------------------------------------------------------------------------*/
FoamFile
{
    version     2.0;
    format      ascii;
    class       dictionary;
    location    "system";
    object      controlDict;
}
// * * * * * * * * * * * * * * * * * * * * * * * * * * * * * * * * * * * * * //

application     HFDIBDEMFoam;

startFrom       latestTime;

startTime       0;

stopAt          endTime;

endTime         0.2;

deltaT          1e-4;

writeControl    adjustableRunTime;

writeInterval   5e-3;

purgeWrite      0;

writeFormat     ascii;

writePrecision  8;

writeCompression off;

timeFormat      general;

timePrecision   8;

maxCo           0.25;

maxDeltaT       1e-3;

adjustTimeStep  yes;

runTimeModifiable yes;

// ************************************************************************* //
