/*--------------------------------*- C++ -*----------------------------------*\
| =========                 |                                                 |
| \\      /  F ield         | OpenFOAM: The Open Source CFD Toolbox           |
|  \\    /   O peration     | Version:  3.0.x                                 |
|   \\  /    A nd           | Web:      www.OpenFOAM.org                      |
|    \\/     M anipulation  |                                                 |
\*---------------------------------------------------------------------------*/
FoamFile
{
    version     2.0;
    format      ascii;
    class       dictionary;
    object      blockMeshDict;
}
// * * * * * * * * * * * * * * * * * * * * * * * * * * * * * * * * * * * * * //

convertToMeters 0.01;
xInlet -5;
//~ xOutlet  12;
xOutlet  10;
//~ xResolution 225;
//~ xResolution 125;
xResolution 300;

ycStart -0.05;
ycyclicLength  0.05; //dp = 2, i.e., 4 diameters per box
ycyclicResolution 1;

zcStart -5;
zcyclicLength  5; //dp = 2, i.e., 4 diameters per box

//~ zcyclicResolution 90;
zcyclicResolution 200;



vertices
(
  (-10  -0.05 -1)
  (10 -0.05 -1)
  (10 0.05 -1)
  (-10  0.05 -1)
  (-10  -0.05 1)
  (10 -0.05 1)
  (10 0.05 1)
  (-10  0.05 1)
  (-10  -0.05 -11)
  (10  -0.05 -11)
  (10 0.05 -11)
  (-10 0.05 -11)
  (-10  -0.05 11)
  (10  -0.05 11)
  (10 0.05 11)
  (-10 0.05 11)
  (13  -0.05 -1)
  (13  0.05 -1)
  (13 0.05 -11)
  (13 -0.05 -11)
  (13  -0.05 11)
  (13  0.05 11)
  (13 0.05 1)
  (13 -0.05 1)


);

blocks
(
  hex (0 1 2 3 4 5 6 7) (200 1 20) simpleGrading (1 1 1)
  hex (8 9 10 11 0 1 2 3) (200 1 100) simpleGrading (1 1 1)
  hex (4 5 6 7 12 13 14 15) (200 1 100) simpleGrading (1 1 1)
  hex (9 19 18 10 1 16 17 2) (30 1 100) simpleGrading (1 1 1)
  hex (5 23 22 6 13 20 21 14) (30 1 100) simpleGrading (1 1 1)
);

edges
(
);

boundary
(
walls
{
  //~ type symmetry;
  type wall;
/*         type wall;*/
//        neighbourPatch z0;
  faces
  (
   (12 15 14 13)
   (8 9 10 11)
  (1 5 6 2)
  (0 3 7 4)
  (0 8 11 3)
  (4 7 15 12)
  (9 19 18 10)
  (19 16 17 18)
  (1 2 17 16)
  (5 23 22 6)
  (23 20 21 22)
  (13 14 21 20)
  );
}

frontAndBack
 {
    //~ type patch;
  type empty;
//     neighbourPatch periodic_y0;
/*        transform translational;*/
/*        separationVector (0 -0.008 0);*/
     faces
     (
     (2 6 7 3)
     (3 11 10 2)
     (0 4 5 1)
     (8 0 1 9)
     (15 7 6 14)
     (12 13 5 4)
     (2 10 18 17)
     (1 16 19 9)
     (14 6 22 21)
     (13 20 23 5)
     );
 }



);

mergePatchPairs
(
);

// ************************************************************************* //
