/*--------------------------------*- C++ -*----------------------------------*\
| =========                 |                                                 |
| \\      /  F ield         | OpenFOAM: The Open Source CFD Toolbox           |
|  \\    /   O peration     | Version:  dev                                   |
|   \\  /    A nd           | Web:      www.OpenFOAM.org                      |
|    \\/     M anipulation  |                                                 |
\*---------------------------------------------------------------------------*/
FoamFile
{
    version     2.0;
    format      ascii;
    class       dictionary;
    object      blockMeshDict;
}
// * * * * * * * * * * * * * * * * * * * * * * * * * * * * * * * * * * * * * //

convertToMeters 0.01;

vertices
(
    (-1.5 -2 0) //0
    (1.5 -2 0) //1
    (1.5 2 0) //2
    (-1.5 2 0) //3
    (-1.5 -2 0.1) //0
    (1.5 -2 0.1) //1
    (1.5  2 0.1) //2
    (-1.5 2 0.1) //3
);

blocks
(
    hex (0 1 2 3 4 5 6 7) Randomizer (30 40 1) simpleGrading (1 1 1)
);

edges
(
);

boundary
(
    movingWall
    {
        type cyclic;
        neighbourPatch outlet;
        faces
        (
            (3 7 6 2)
        );
    }
    fixedWalls
    {
        type wall;
        faces
        (
			(0 4 7 3)	
            (2 6 5 1)          
        );
    }
    outlet
    {
        type cyclic;
        neighbourPatch movingWall;
        faces
        (
          (1 5 4 0)
        );
    }
    frontAndBack
    {
        type empty;
        faces
        (
            (0 3 2 1)
            (4 5 6 7)
         );
    }
);

mergePatchPairs
(
);

// ************************************************************************* //
